data30.m

busdata=[1 1 1.06 0 0 0 0 0 0 0;
   2 3 1.043 .217 .127 0.4 0.5 -0.4 0.5 0;
   3 2 1.021 0.024 .012 0 0 0 0 0;
   4 2 1.012 .076 .016  0 0 0 0 0;
   5 3 1.01 .942 .19 0 0 -0.4 0.4 0;
   6 2 1.01 0 0 0 0 0 0 0;
   7 2 1.002 0.228 .109 0 0 0 0 0;
   8 3 1.01 .30 .30 0 .373 -0.1 0.4 0;
   9 2 1.051 0 0 0 0 0 0 0;
   10 2 1.045 0.058 .02 0 0 0 0 .19;
   11 3 1.082 0 0  0 .162  -0.06 0.24 0;
   12 2 1.057 .112 .075 0 0 0 0 0;
   13 3 1.071 0 0 0 .106  -0.06 0.24 0;
   14 2 1.042 0.062 .016 0 0 0 0 0;
   15 2 1.038 0.082 .025 0 0 0 0 0;
   16 2 1.045 0.035 .018 0 0 0 0 0;
   17 2 1.04  0.09  .058 0 0 0 0 0;
   18 2 1.028 0.032 .009 0 0 0 0 0;
   19 2 1.026 0.095 .034 0 0 0 0 0;
   20 2 1.030  0.022 .007 0 0 0 0 0;
   21 2 1.033  0.175 .112 0 0 0 0 0;
   22 2 1.033  0 0 0 0 0 0 0;
   23 2 1.027 .032 .016 0 0 0 0 0;
   24 2 1.021 .087 .067 0 0 0 0 .043;
   25 2 1.017 0 0 0 0 0 0 0;
   26 2 1.00 .035 .023 0 0 0 0 0;
   27 2 1.023 0 0 0 0 0 0 0;
   28 2 1.007 0 0 0 0 0 0 0;
   29 2 1.003  0.024 .009 0 0 0 0 0;
   30 2 0.992 0.106 .019 0 0 0 0 0];

linedata=[1 1 2 .0192 .0575 .0264 1 ;
   2 1 3 .0452 .1652 .0204 1 ;
   3 2 4 .0570 .1737 .0184 1;
   4 3 4 .0132 .0379 .0042 1 ;
   5 2 5 .0472 .1983 .0209 1 ;
   6 2 6 .0581 .1763 .0187 1;
   7 4 6 .0119 .0414 .0045 1 ;
   8 5 7 .0460 .1160 .0102 1 ;
   9 6 7 .0267 .0820 .0085 1 ;
   10 6 8 .012 .042 .0045 1 ;
   11 6 9  0   .208 0  0.978 ;
   12 6 10 0   .556  0 .969 ;
   13 9 11 0   .208  0   1;
   14 9 10 0   .11 0 1;
   15 4 12 0   .256 0 0.932 ;
   16 12 13 0  .14 0 1 ;
   17 12 14 .1231 .2559 0 1 ;
   18 12 15 .0662 .1304 0 1 ;
   19 12 16 .0945 .1987 0 1 ;
   20 14 15 .221 .1997 0 1 ;
   21 16 17 .0524 .1923 0 1 ;
   22 15 18 .1073 .2185 0 1 ;
   23 18 19 .0639 .1292 0 1 ;
   24 19 20 .0340 .0680 0 1 ;
   25 10 20 .0936 .2090 0 1 ;
   26 10 17 .0324 .0845 0 1 ;
   27 10 21 .0348 .0749 0 1 ;
   28 10 22 .0727 .1499 0 1 ;
   29 21 22 .0116 .0236 0 1 ;
   30 15 23 .1000 .2020 0 1 ;
   31 22 24 .1150 .1790 0 1 ;
   32 23 24 .1320 .2700 0 1 ;
   33 24 25 .1885 .3292 0 1 ;
   34 25 26 .2544 .3800 0 1 ;
   35 25 27 .1093 .2087 0 1 ;
   36 28 27 0    .3960 0 .968;
   37 27 29 .2198 .4153 0 1 ;
   38 27 30 .3202 .6027 0 1 ;
   39 29 30 .2399 .4533 0 1 ;
   40 8 28 .0636  .2 .0214 1 ;
   41 6 28 .0169 .0599 .0065 1];
  
busdata(:,4)=(2.95)*busdata(:,4);
busdata(:,5)=(2.95)*busdata(:,5);

   
% mul= 1.4222
% busdata(:,4)=busdata(:,4)*mul;
% busdata(:,5)=busdata(:,5)*mul;
% busdata(:,6)=busdata(:,6)*mul;
% busdata(:,7)=busdata(:,7)*mul;